data_Eu_dpdmg\(2)
_audit_creation_date              2021-04-27
_audit_creation_method            'Materials Studio'
_symmetry_space_group_name_H-M    'P1'
_symmetry_Int_Tables_number       1
_symmetry_cell_setting            triclinic
loop_
_symmetry_equiv_pos_as_xyz
  x,y,z
_cell_length_a                    15.0000
_cell_length_b                    15.0000
_cell_length_c                    15.0000
_cell_angle_alpha                 90.0000
_cell_angle_beta                  90.0000
_cell_angle_gamma                 90.0000
loop_
_atom_site_label
_atom_site_type_symbol
_atom_site_fract_x
_atom_site_fract_y
_atom_site_fract_z
_atom_site_U_iso_or_equiv
_atom_site_adp_type
_atom_site_occupancy
Eu1    Eu    0.50534   0.57824  -0.48093   0.00000  Uiso   1.00
N2     N     0.45711   0.72638  -0.52393   0.00000  Uiso   1.00
N3     N     0.48552   0.62709  -0.63271   0.00000  Uiso   1.00
N4     N     0.44001   0.77388  -0.67468   0.00000  Uiso   1.00
N5     N     0.59021   0.60822  -0.34771   0.00000  Uiso   1.00
N6     N     0.66628   0.57453  -0.47213   0.00000  Uiso   1.00
N7     N     0.74932   0.60367  -0.33994   0.00000  Uiso   1.00
N8     N     0.36913   0.51254  -0.42381   0.00000  Uiso   1.00
N9     N     0.46868   0.42097  -0.48840   0.00000  Uiso   1.00
N10    N     0.33493   0.35667  -0.43275   0.00000  Uiso   1.00
C11    C     0.46751   0.81731  -0.48884   0.00000  Uiso   1.00
H12    H     0.45847   0.86027  -0.53811   0.00000  Uiso   1.00
C13    C     0.39826   0.83444  -0.41748   0.00000  Uiso   1.00
H14    H     0.33916   0.82608  -0.44228   0.00000  Uiso   1.00
H15    H     0.40418   0.89509  -0.39589   0.00000  Uiso   1.00
H16    H     0.40711   0.79317  -0.36849   0.00000  Uiso   1.00
C17    C     0.55958   0.83073  -0.45057   0.00000  Uiso   1.00
H18    H     0.57096   0.78581  -0.40541   0.00000  Uiso   1.00
H19    H     0.56355   0.88950  -0.42409   0.00000  Uiso   1.00
H20    H     0.60354   0.82538  -0.49777   0.00000  Uiso   1.00
C21    C     0.46146   0.58703  -0.71842   0.00000  Uiso   1.00
H22    H     0.43214   0.63293  -0.75575   0.00000  Uiso   1.00
C23    C     0.39696   0.51056  -0.70445   0.00000  Uiso   1.00
H24    H     0.42525   0.46470  -0.66862   0.00000  Uiso   1.00
H25    H     0.38006   0.48583  -0.76171   0.00000  Uiso   1.00
H26    H     0.34417   0.53221  -0.67392   0.00000  Uiso   1.00
C27    C     0.54346   0.55371  -0.76679   0.00000  Uiso   1.00
H28    H     0.58403   0.60297  -0.77700   0.00000  Uiso   1.00
H29    H     0.52610   0.52799  -0.82354   0.00000  Uiso   1.00
H30    H     0.57291   0.50867  -0.73089   0.00000  Uiso   1.00
C31    C     0.46107   0.70908  -0.61091   0.00000  Uiso   1.00
C32    C     0.36315   0.83033  -0.66662   0.00000  Uiso   1.00
H33    H     0.32947   0.81347  -0.61403   0.00000  Uiso   1.00
H34    H     0.32596   0.82380  -0.71913   0.00000  Uiso   1.00
H35    H     0.38207   0.89198  -0.66121   0.00000  Uiso   1.00
C36    C     0.49625   0.78840  -0.75081   0.00000  Uiso   1.00
H37    H     0.51582   0.85004  -0.75172   0.00000  Uiso   1.00
H38    H     0.46309   0.77554  -0.80486   0.00000  Uiso   1.00
H39    H     0.54775   0.74952  -0.74730   0.00000  Uiso   1.00
C40    C     0.57636   0.59479  -0.25166   0.00000  Uiso   1.00
H41    H     0.63527   0.58783  -0.22277   0.00000  Uiso   1.00
C42    C     0.52265   0.51096  -0.23568   0.00000  Uiso   1.00
H43    H     0.46472   0.51676  -0.26374   0.00000  Uiso   1.00
H44    H     0.51498   0.50210  -0.17205   0.00000  Uiso   1.00
H45    H     0.55380   0.46025  -0.26093   0.00000  Uiso   1.00
C46    C     0.53032   0.67501  -0.21159   0.00000  Uiso   1.00
H47    H     0.56726   0.72745  -0.22000   0.00000  Uiso   1.00
H48    H     0.52089   0.66509  -0.14837   0.00000  Uiso   1.00
H49    H     0.47330   0.68395  -0.24081   0.00000  Uiso   1.00
C50    C     0.74125   0.59134  -0.53220   0.00000  Uiso   1.00
H51    H     0.79438   0.60674  -0.49626   0.00000  Uiso   1.00
C52    C     0.71947   0.66872  -0.59290   0.00000  Uiso   1.00
H53    H     0.66596   0.65525  -0.62665   0.00000  Uiso   1.00
H54    H     0.76869   0.67869  -0.63361   0.00000  Uiso   1.00
H55    H     0.70978   0.72186  -0.55735   0.00000  Uiso   1.00
C56    C     0.76108   0.50838  -0.58562   0.00000  Uiso   1.00
H57    H     0.77702   0.46022  -0.54558   0.00000  Uiso   1.00
H58    H     0.81024   0.51997  -0.62605   0.00000  Uiso   1.00
H59    H     0.70874   0.49162  -0.61971   0.00000  Uiso   1.00
C60    C     0.66875   0.59560  -0.38596   0.00000  Uiso   1.00
C61    C     0.76440   0.67352  -0.27574   0.00000  Uiso   1.00
H62    H     0.71680   0.71706  -0.27971   0.00000  Uiso   1.00
H63    H     0.82097   0.70223  -0.28811   0.00000  Uiso   1.00
H64    H     0.76557   0.64821  -0.21631   0.00000  Uiso   1.00
C65    C     0.81830   0.53776  -0.34697   0.00000  Uiso   1.00
H66    H     0.87325   0.56603  -0.36593   0.00000  Uiso   1.00
H67    H     0.80101   0.49295  -0.39021   0.00000  Uiso   1.00
H68    H     0.82728   0.50979  -0.28926   0.00000  Uiso   1.00
C69    C     0.27674   0.53997  -0.41125   0.00000  Uiso   1.00
H70    H     0.24098   0.48780  -0.39254   0.00000  Uiso   1.00
C71    C     0.23994   0.57615  -0.49765   0.00000  Uiso   1.00
H72    H     0.27310   0.62894  -0.51470   0.00000  Uiso   1.00
H73    H     0.17758   0.59135  -0.48978   0.00000  Uiso   1.00
H74    H     0.24559   0.53123  -0.54390   0.00000  Uiso   1.00
C75    C     0.27089   0.60973  -0.34197   0.00000  Uiso   1.00
H76    H     0.29169   0.58589  -0.28556   0.00000  Uiso   1.00
H77    H     0.20944   0.62906  -0.33595   0.00000  Uiso   1.00
H78    H     0.30769   0.66010  -0.35902   0.00000  Uiso   1.00
C79    C     0.51530   0.33453  -0.49094   0.00000  Uiso   1.00
H80    H     0.47518   0.28794  -0.46689   0.00000  Uiso   1.00
C81    C     0.59762   0.33962  -0.43283   0.00000  Uiso   1.00
H82    H     0.63468   0.38889  -0.45224   0.00000  Uiso   1.00
H83    H     0.63091   0.28439  -0.43772   0.00000  Uiso   1.00
H84    H     0.58000   0.34872  -0.37126   0.00000  Uiso   1.00
C85    C     0.53943   0.31055  -0.58560   0.00000  Uiso   1.00
H86    H     0.48572   0.30819  -0.62161   0.00000  Uiso   1.00
H87    H     0.56856   0.25283  -0.58652   0.00000  Uiso   1.00
H88    H     0.57941   0.35530  -0.60961   0.00000  Uiso   1.00
C89    C     0.39066   0.43013  -0.44832   0.00000  Uiso   1.00
C90    C     0.31081   0.29873  -0.50397   0.00000  Uiso   1.00
H91    H     0.24767   0.30497  -0.51641   0.00000  Uiso   1.00
H92    H     0.32355   0.23759  -0.48719   0.00000  Uiso   1.00
H93    H     0.34482   0.31414  -0.55677   0.00000  Uiso   1.00
C94    C     0.29195   0.34289  -0.34886   0.00000  Uiso   1.00
H95    H     0.31165   0.38791  -0.30685   0.00000  Uiso   1.00
H96    H     0.30717   0.28422  -0.32628   0.00000  Uiso   1.00
H97    H     0.22791   0.34706  -0.35650   0.00000  Uiso   1.00
loop_
_geom_bond_atom_site_label_1
_geom_bond_atom_site_label_2
_geom_bond_distance
_geom_bond_site_symmetry_2
_ccdc_geom_bond_type
Eu1    N2      2.424   .     S
Eu1    N3      2.410   .     S
Eu1    N5      2.412   .     S
Eu1    N6      2.418   .     S
Eu1    N8      2.425   .     S
Eu1    N9      2.425   .     S
Eu1    C31     2.845   .     S
Eu1    C60     2.847   .     S
N2     C11     1.470   .     S
N2     C31     1.332   .     D
N3     C21     1.464   .     S
N3     C31     1.324   .     S
N4     C31     1.400   .     S
N4     C32     1.436   .     S
N4     C36     1.436   .     S
N5     C40     1.470   .     S
N5     C60     1.324   .     D
N6     C50     1.463   .     S
N6     C60     1.331   .     S
N7     C60     1.397   .     S
N7     C61     1.441   .     S
N7     C65     1.435   .     S
N8     C69     1.458   .     S
N8     C89     1.329   .     D
N9     C79     1.474   .     S
N9     C89     1.323   .     S
N10    C89     1.403   .     S
N10    C90     1.424   .     S
N10    C94     1.429   .     S
C11    H12     0.990   .     S
C11    C13     1.514   .     S
C11    C17     1.509   .     S
C13    H14     0.970   .     S
C13    H15     0.970   .     S
C13    H16     0.970   .     S
C17    H18     0.971   .     S
C17    H19     0.969   .     S
C17    H20     0.971   .     S
C21    H22     0.990   .     S
C21    C23     1.515   .     S
C21    C27     1.513   .     S
C23    H24     0.971   .     S
C23    H25     0.969   .     S
C23    H26     0.971   .     S
C27    H28     0.969   .     S
C27    H29     0.970   .     S
C27    H30     0.970   .     S
C32    H33     0.970   .     S
C32    H34     0.970   .     S
C32    H35     0.971   .     S
C36    H37     0.970   .     S
C36    H38     0.971   .     S
C36    H39     0.969   .     S
C40    H41     0.990   .     S
C40    C42     1.513   .     S
C40    C46     1.512   .     S
C42    H43     0.969   .     S
C42    H44     0.971   .     S
C42    H45     0.970   .     S
C46    H47     0.970   .     S
C46    H48     0.970   .     S
C46    H49     0.970   .     S
C50    H51     0.990   .     S
C50    C52     1.511   .     S
C50    C56     1.510   .     S
C52    H53     0.970   .     S
C52    H54     0.970   .     S
C52    H55     0.970   .     S
C56    H57     0.969   .     S
C56    H58     0.970   .     S
C56    H59     0.970   .     S
C61    H62     0.969   .     S
C61    H63     0.969   .     S
C61    H64     0.969   .     S
C65    H66     0.970   .     S
C65    H67     0.969   .     S
C65    H68     0.971   .     S
C69    H70     0.989   .     S
C69    C71     1.510   .     S
C69    C75     1.477   .     S
C71    H72     0.969   .     S
C71    H73     0.970   .     S
C71    H74     0.971   .     S
C75    H76     0.970   .     S
C75    H77     0.970   .     S
C75    H78     0.970   .     S
C79    H80     0.990   .     S
C79    C81     1.513   .     S
C79    C85     1.509   .     S
C81    H82     0.970   .     S
C81    H83     0.970   .     S
C81    H84     0.970   .     S
C85    H86     0.971   .     S
C85    H87     0.970   .     S
C85    H88     0.969   .     S
C90    H91     0.970   .     S
C90    H92     0.970   .     S
C90    H93     0.970   .     S
C94    H95     0.970   .     S
C94    H96     0.970   .     S
C94    H97     0.969   .     S
