data_compound\1
_audit_creation_date              2021-04-27
_audit_creation_method            'Materials Studio'
_symmetry_space_group_name_H-M    'P1'
_symmetry_Int_Tables_number       1
_symmetry_cell_setting            triclinic
loop_
_symmetry_equiv_pos_as_xyz
  x,y,z
_cell_length_a                    15.0000
_cell_length_b                    15.0000
_cell_length_c                    15.0000
_cell_angle_alpha                 90.0000
_cell_angle_beta                  90.0000
_cell_angle_gamma                 90.0000
loop_
_atom_site_label
_atom_site_type_symbol
_atom_site_fract_x
_atom_site_fract_y
_atom_site_fract_z
_atom_site_U_iso_or_equiv
_atom_site_adp_type
_atom_site_occupancy
Eu1    Eu    0.52326   0.55982   0.52612   0.00000  Uiso   1.00
N2     N     0.49849   0.71311   0.48198   0.00000  Uiso   1.00
N3     N     0.48132   0.60791   0.37648   0.00000  Uiso   1.00
N4     N     0.59647   0.56984   0.66949   0.00000  Uiso   1.00
N5     N     0.68224   0.55881   0.54750   0.00000  Uiso   1.00
N6     N     0.38599   0.49276   0.57830   0.00000  Uiso   1.00
N7     N     0.49190   0.40221   0.52400   0.00000  Uiso   1.00
C8     C     0.50446   0.80335   0.51537   0.00000  Uiso   1.00
H9     H     0.51492   0.85105   0.45997   0.00000  Uiso   1.00
C10    C     0.41886   0.83130   0.56335   0.00000  Uiso   1.00
H11    H     0.36031   0.82466   0.51923   0.00000  Uiso   1.00
H12    H     0.42261   0.90122   0.58626   0.00000  Uiso   1.00
H13    H     0.40742   0.78861   0.62225   0.00000  Uiso   1.00
C14    C     0.58491   0.81196   0.57720   0.00000  Uiso   1.00
H15    H     0.57923   0.76476   0.63348   0.00000  Uiso   1.00
H16    H     0.59044   0.88017   0.60443   0.00000  Uiso   1.00
H17    H     0.64707   0.79609   0.54123   0.00000  Uiso   1.00
C18    C     0.45656   0.57176   0.29073   0.00000  Uiso   1.00
H19    H     0.41760   0.62088   0.25173   0.00000  Uiso   1.00
C20    C     0.39636   0.49068   0.30378   0.00000  Uiso   1.00
C21    C     0.53875   0.54794   0.23528   0.00000  Uiso   1.00
H22    H     0.58168   0.60692   0.22537   0.00000  Uiso   1.00
H23    H     0.51978   0.52183   0.16905   0.00000  Uiso   1.00
H24    H     0.57883   0.49647   0.26950   0.00000  Uiso   1.00
C25    C     0.47941   0.69406   0.39739   0.00000  Uiso   1.00
C26    C     0.57074   0.56482   0.76256   0.00000  Uiso   1.00
C27    C     0.59117   0.47500   0.80681   0.00000  Uiso   1.00
H28    H     0.66323   0.46338   0.81591   0.00000  Uiso   1.00
C29    C     0.76521   0.55816   0.49859   0.00000  Uiso   1.00
H30    H     0.81847   0.52456   0.53732   0.00000  Uiso   1.00
C31    C     0.79702   0.65298   0.47798   0.00000  Uiso   1.00
H32    H     0.74676   0.68798   0.43705   0.00000  Uiso   1.00
H33    H     0.86078   0.65254   0.44104   0.00000  Uiso   1.00
H34    H     0.80649   0.69204   0.53964   0.00000  Uiso   1.00
C35    C     0.75345   0.50533   0.41244   0.00000  Uiso   1.00
H36    H     0.73285   0.43612   0.42683   0.00000  Uiso   1.00
H37    H     0.81598   0.50322   0.37364   0.00000  Uiso   1.00
H38    H     0.70158   0.53631   0.37023   0.00000  Uiso   1.00
C39    C     0.67813   0.56155   0.63629   0.00000  Uiso   1.00
C40    C     0.29809   0.51420   0.61131   0.00000  Uiso   1.00
C41    C     0.23228   0.52856   0.53457   0.00000  Uiso   1.00
C42    C     0.30274   0.59697   0.67022   0.00000  Uiso   1.00
C43    C     0.54194   0.32113   0.50758   0.00000  Uiso   1.00
C44    C     0.50277   0.26072   0.43500   0.00000  Uiso   1.00
C45    C     0.41241   0.40946   0.56264   0.00000  Uiso   1.00
H46    H     0.22745   0.46865   0.49206   0.00000  Uiso   1.00
H47    H     0.25495   0.58421   0.49198   0.00000  Uiso   1.00
H48    H     0.16480   0.54439   0.55957   0.00000  Uiso   1.00
H49    H     0.34772   0.58579   0.72737   0.00000  Uiso   1.00
H50    H     0.23630   0.61491   0.69636   0.00000  Uiso   1.00
H51    H     0.32839   0.65440   0.63188   0.00000  Uiso   1.00
C52    C     0.56682   0.26923   0.59202   0.00000  Uiso   1.00
H53    H     0.48875   0.29957   0.37415   0.00000  Uiso   1.00
H54    H     0.44013   0.22804   0.45552   0.00000  Uiso   1.00
H55    H     0.55064   0.20754   0.41751   0.00000  Uiso   1.00
H56    H     0.61488   0.21573   0.57617   0.00000  Uiso   1.00
H57    H     0.50867   0.23781   0.62432   0.00000  Uiso   1.00
H58    H     0.59818   0.31426   0.64105   0.00000  Uiso   1.00
C59    C     0.60083   0.64430   0.81940   0.00000  Uiso   1.00
H60    H     0.56456   0.42007   0.76571   0.00000  Uiso   1.00
H61    H     0.55958   0.47113   0.87324   0.00000  Uiso   1.00
H62    H     0.58285   0.70747   0.78629   0.00000  Uiso   1.00
H63    H     0.67338   0.64532   0.83153   0.00000  Uiso   1.00
H64    H     0.56761   0.64271   0.88510   0.00000  Uiso   1.00
H65    H     0.49716   0.56913   0.76115   0.00000  Uiso   1.00
H66    H     0.43068   0.43936   0.34391   0.00000  Uiso   1.00
H67    H     0.37715   0.46101   0.23915   0.00000  Uiso   1.00
H68    H     0.33508   0.50959   0.33984   0.00000  Uiso   1.00
H69    H     0.27170   0.45945   0.65339   0.00000  Uiso   1.00
H70    H     0.60618   0.34482   0.48006   0.00000  Uiso   1.00
C71    C     0.35427   0.33114   0.58888   0.00000  Uiso   1.00
H72    H     0.38322   0.26696   0.56958   0.00000  Uiso   1.00
H73    H     0.28808   0.33662   0.55731   0.00000  Uiso   1.00
H74    H     0.34372   0.33066   0.66172   0.00000  Uiso   1.00
C75    C     0.45905   0.76736   0.33094   0.00000  Uiso   1.00
H76    H     0.43741   0.74151   0.26595   0.00000  Uiso   1.00
H77    H     0.51911   0.80841   0.31971   0.00000  Uiso   1.00
H78    H     0.40661   0.81203   0.35656   0.00000  Uiso   1.00
C79    C     0.76230   0.55387   0.69157   0.00000  Uiso   1.00
H80    H     0.79402   0.48839   0.68040   0.00000  Uiso   1.00
H81    H     0.74979   0.56126   0.76312   0.00000  Uiso   1.00
H82    H     0.81092   0.60524   0.67152   0.00000  Uiso   1.00
loop_
_geom_bond_atom_site_label_1
_geom_bond_atom_site_label_2
_geom_bond_distance
_geom_bond_site_symmetry_2
_ccdc_geom_bond_type
Eu1    N2      2.421   .     S
Eu1    N3      2.440   .     S
Eu1    N4      2.419   .     S
Eu1    N5      2.406   .     S
Eu1    N6      2.422   .     S
Eu1    N7      2.411   .     S
Eu1    C39     2.851   .     S
N2     C8      1.446   .     S
N2     C25     1.332   .     D
N3     C18     1.444   .     S
N3     C25     1.330   .     S
N4     C26     1.450   .     S
N4     C39     1.328   .     D
N5     C29     1.445   .     S
N5     C39     1.334   .     S
N6     C40     1.445   .     S
N6     C45     1.332   .     D
N7     C43     1.450   .     S
N7     C45     1.330   .     S
C8     H9      1.108   .     S
C8     C10     1.531   .     S
C8     C14     1.527   .     S
C10    H11     1.104   .     S
C10    H12     1.105   .     S
C10    H13     1.105   .     S
C14    H15     1.105   .     S
C14    H16     1.105   .     S
C14    H17     1.103   .     S
C18    H19     1.108   .     S
C18    C20     1.527   .     S
C18    C21     1.529   .     S
C20    H66     1.105   .     S
C20    H67     1.105   .     S
C20    H68     1.104   .     S
C21    H22     1.104   .     S
C21    H23     1.105   .     S
C21    H24     1.105   .     S
C25    C75     1.515   .     S
C26    C27     1.533   .     S
C26    C59     1.534   .     S
C26    H65     1.106   .     S
C27    H28     1.103   .     S
C27    H60     1.104   .     S
C27    H61     1.105   .     S
C29    H30     1.109   .     S
C29    C31     1.532   .     S
C29    C35     1.526   .     S
C31    H32     1.105   .     S
C31    H33     1.105   .     S
C31    H34     1.104   .     S
C35    H36     1.104   .     S
C35    H37     1.104   .     S
C35    H38     1.106   .     S
C39    C79     1.515   .     S
C40    C41     1.532   .     S
C40    C42     1.525   .     S
C40    H69     1.109   .     S
C41    H46     1.104   .     S
C41    H47     1.105   .     S
C41    H48     1.105   .     S
C42    H49     1.104   .     S
C42    H50     1.104   .     S
C42    H51     1.105   .     S
C43    C44     1.534   .     S
C43    C52     1.533   .     S
C43    H70     1.107   .     S
C44    H53     1.103   .     S
C44    H54     1.103   .     S
C44    H55     1.105   .     S
C45    C71     1.515   .     S
C52    H56     1.105   .     S
C52    H57     1.103   .     S
C52    H58     1.104   .     S
C59    H62     1.103   .     S
C59    H63     1.103   .     S
C59    H64     1.105   .     S
C71    H72     1.095   .     S
C71    H73     1.103   .     S
C71    H74     1.104   .     S
C75    H76     1.098   .     S
C75    H77     1.104   .     S
C75    H78     1.102   .     S
C79    H80     1.104   .     S
C79    H81     1.095   .     S
C79    H82     1.103   .     S
